69
E(CCSDT_CBS_WCTQ_AE_T1_CPS_67) = -1694.1602673795244
Li    -6.056524     3.762024     5.513512
 C    -4.422755     1.268105     5.408414
 O    -4.398753    -0.056624     5.368278
 O    -3.208018     1.794454     5.295992
 O    -5.427547     1.915466     5.530420
 C    -3.038170    -0.503710     5.370500
 C    -2.245522     0.751049     5.019746
 H    -2.800664    -0.878975     6.368649
 H    -2.935676    -1.304283     4.641035
 C    -0.987113     0.963567     5.818221
 H    -2.035957     0.802747     3.946570
 H    -1.250859     0.975553     6.880995
 H    -0.355294     0.081730     5.664248
 C    -0.233627     2.223839     5.432675
 H     0.677583     2.322190     6.023654
 H     0.057334     2.201698     4.379511
 H    -0.837347     3.117643     5.596437
 C    -7.218340     4.689177     8.242633
 O    -8.485677     4.832187     8.613030
 O    -6.376658     5.155495     9.155626
 O    -6.880605     4.196184     7.203193
 C    -8.539686     5.345643     9.948378
 C    -7.109793     5.822306    10.208500
 H    -9.267716     6.155252     9.975484
 H    -8.855637     4.540862    10.613064
 C    -6.919436     7.317298    10.109007
 H    -6.713932     5.439142    11.150226
 H    -7.331324     7.661771     9.153348
 H    -7.534112     7.771629    10.893423
 C    -5.472894     7.750777    10.258125
 H    -5.386995     8.836060    10.198199
 H    -5.064428     7.437405    11.222057
 H    -4.849104     7.322338     9.471885
 C    -8.304584     3.825012     3.414211
 O    -9.530945     4.097930     3.788200
 O    -8.305379     3.457723     2.152786
 O    -7.314324     3.902602     4.116168
 C    -7.039395     3.083799     1.584019
 H    -7.180727     3.227186     0.513563
 H    -6.278068     3.779174     1.940189
 C    -6.687528     1.654803     1.910341
 H    -6.551366     1.517633     2.984215
 H    -5.756767     1.385599     1.405537
 H    -7.467938     0.975708     1.564121
 C    -9.723622     4.534464     5.147435
 H   -10.768948     4.303409     5.346873
 H    -9.093096     3.936249     5.805052
 C    -9.445538     6.007813     5.298196
 H   -10.062611     6.593049     4.614800
 H    -8.395001     6.232821     5.107877
 H    -9.681688     6.313870     6.319419
 C    -3.315791     5.040641     5.238052
 O    -2.556432     5.144693     4.170257
 O    -2.566441     5.180499     6.308796
 O    -4.517886     4.866623     5.231562
 C    -3.224821     5.177500     7.588981
 H    -2.612866     5.841251     8.199295
 H    -4.219295     5.608158     7.475042
 C    -3.288340     3.793480     8.178697
 H    -3.934990     3.143276     7.590003
 H    -3.699591     3.853310     9.187918
 H    -2.292606     3.350813     8.237778
 C    -3.202556     5.074556     2.887076
 H    -4.194120     5.521332     2.967597
 H    -2.581132     5.696816     2.244337
 C    -3.268540     3.656800     2.381257
 H    -3.925553     3.048541     3.003317
 H    -2.274145     3.207221     2.365276
 H    -3.656781     3.653294     1.360447
