15
E(CCSDT_CBS_WCTQ_AE_T1_CPS_67) = -382.95208151786517
 C     0.479416    -0.203871     0.000419
 O     1.524135     0.619380     0.000046
 O    -0.625614     0.531298     0.000103
 O     0.532018    -1.404584     0.000221
 C    -1.848504    -0.215154    -0.000121
 H    -1.867884    -0.859825    -0.881945
 H    -1.868016    -0.860129     0.881476
 C     2.788706    -0.032427    -0.000049
 H     3.529128     0.764079    -0.000259
 H     2.900834    -0.655985     0.887755
 H     2.900599    -0.656232    -0.887710
 C    -2.982388     0.773105    -0.000016
 H    -2.945430     1.410113    -0.885314
 H    -3.934449     0.238766     0.000075
 H    -2.945241     1.410057     0.885316
