13
E(CCSDT_CBS_WCTQ_AE_T1_CPS_67) = -381.7480211417976
 C    -1.009865     0.171275     0.056161
 O    -0.610365    -1.075184     0.384798
 O    -0.011157     0.836833    -0.555542
 O    -2.086431     0.614539     0.276921
 C     0.674996    -1.323315    -0.164508
 C     1.197363     0.074471    -0.493703
 H     1.281839    -1.839478     0.579598
 H     0.567832    -1.953482    -1.050949
 C     2.123115     0.651353     0.549211
 H     1.652821     0.113503    -1.484484
 H     1.673329     0.585686     1.542818
 H     2.336261     1.698784     0.333062
 H     3.066480     0.100329     0.558421
