41
E(CCSDT_CBS_WCTQ_AE_T1_CPS_67) = -1377.130364438786
Li    -4.350245    -1.127503     7.672556
 C    -2.705426    -3.319157     6.390996
 O    -2.633620    -4.642174     6.197247
 O    -1.608039    -2.740124     5.879228
 O    -3.607017    -2.750203     6.933968
 C    -1.447257    -4.897574     5.544972
 C    -0.824654    -3.745893     5.352425
 H     0.109847    -3.467584     4.899927
 H    -1.217978    -5.920838     5.307935
 C    -3.505930     0.779708     5.529354
 O    -3.529951     0.010490     4.430231
 O    -3.156441     2.025440     5.185359
 O    -3.756625     0.416994     6.642626
 C    -3.183528     0.813449     3.363387
 C    -2.957093     2.033923     3.821964
 H    -2.669209     2.963589     3.365163
 H    -3.153612     0.363808     2.387450
 C    -4.244667    -0.598078    10.599434
 O    -4.466486    -1.392479    11.621933
 O    -4.486110     0.643794    10.949278
 O    -3.863453    -0.962595     9.505132
 C    -4.311201     1.625175     9.926206
 H    -4.469354     2.582801    10.414224
 H    -3.307210     1.568707     9.507336
 H    -5.044567     1.477434     9.132912
 C    -4.252359    -2.784221    11.383622
 H    -4.475963    -3.276731    12.325823
 H    -4.918583    -3.140932    10.597646
 H    -3.217477    -2.966125    11.094971
 C    -7.195444    -1.107701     8.363303
 O    -8.461542    -1.309742     8.074149
 O    -6.978819    -0.801594     9.625545
 O    -6.283124    -1.185200     7.568402
 C    -8.077452    -0.710825    10.544062
 H    -7.625214    -0.448441    11.496603
 H    -8.774954     0.063476    10.227706
 H    -8.592313    -1.667812    10.617321
 C    -8.750625    -1.654906     6.713076
 H    -9.827038    -1.794868     6.673980
 H    -8.442719    -0.847574     6.049960
 H    -8.231259    -2.573075     6.442209
