51
E(CCSDT_CBS_WCTQ_AE_T1_CPS_67) = -1458.239564131355
Li    -3.035561     3.532875    -5.210816
 C    -2.719088     2.200718    -2.594432
 O    -2.123587     3.208418    -1.958562
 O    -2.795818     1.113973    -1.841366
 O    -3.130989     2.267797    -3.720786
 C    -1.606130     2.739562    -0.705673
 C    -2.338820     1.417098    -0.516087
 H    -0.526122     2.622705    -0.805616
 H    -1.828590     3.479249     0.060060
 H    -3.210254     1.498904     0.134895
 H    -1.698928     0.605429    -0.177442
 C    -5.669210     3.452614    -6.384456
 O    -5.714915     2.123270    -6.451735
 O    -6.652107     4.019404    -7.067193
 O    -4.822436     4.062428    -5.788167
 C    -6.707594     1.734889    -7.412227
 C    -7.538358     3.002941    -7.557120
 H    -6.193788     1.448752    -8.331332
 H    -7.262795     0.888915    -7.013749
 H    -8.434612     3.003223    -6.935297
 H    -7.800864     3.240926    -8.585447
 C    -0.965128     5.299515    -3.983106
 O    -1.103134     6.173227    -3.013042
 O     0.291903     4.934123    -4.069327
 O    -1.870125     4.907947    -4.694344
 C     0.642061     4.001602    -5.110321
 H     0.004931     4.181230    -5.976639
 H     1.670140     4.260240    -5.359938
 C    -2.428707     6.664420    -2.802345
 H    -2.810087     7.133337    -3.708762
 H    -3.089214     5.849643    -2.505502
 H    -2.341378     7.395710    -2.003655
 C     0.535209     2.577631    -4.629379
 H     1.132937     2.426804    -3.728688
 H    -0.501065     2.302918    -4.429204
 H     0.912853     1.906549    -5.403440
 C    -2.968827     1.991375    -7.678900
 O    -3.226071     0.704199    -7.711210
 O    -3.434019     2.560240    -8.769207
 O    -2.394718     2.568221    -6.775098
 C    -3.134990     3.963394    -8.944472
 H    -3.451688     4.506057    -8.052509
 H    -2.052571     4.067605    -9.043045
 C    -2.837266    -0.035556    -6.549032
 H    -1.760223     0.036728    -6.399529
 H    -3.357105     0.342182    -5.668701
 H    -3.122509    -1.063498    -6.754265
 C    -3.861150     4.428208   -10.174216
 H    -3.552757     3.860537   -11.052805
 H    -4.941361     4.328620   -10.053398
 H    -3.637039     5.481696   -10.349233
