12
E(CCSDT_CBS_WCTQ_AE_T1_CPS_67) = -343.6324322124686
 C    -0.000012     0.075190     0.000078
 O     1.075717    -0.704685    -0.001575
 O    -1.075698    -0.704740    -0.001947
 O    -0.000039     1.276691     0.002737
 C    -2.313422    -0.002579    -0.000917
 H    -3.084969    -0.768830    -0.009433
 H    -2.403044     0.617890     0.891588
 H    -2.396849     0.631907    -0.884044
 C     2.313399    -0.002457     0.000256
 H     3.085002    -0.768699    -0.000654
 H     2.400346     0.626527    -0.886501
 H     2.399428     0.623561     0.889193
