8
E(CCSDT_CBS_WCTQ_AE_T1_CPS_67) = -341.19541545138503
 C    -0.000090    -0.000000    -1.297349
 O     0.000005    -1.099649    -0.496654
 O     0.000005     1.099649    -0.496654
 O     0.000060    -0.000000    -2.480149
 C    -0.000004    -0.661860     0.803144
 C    -0.000004     0.661860     0.803144
 H     0.000013     1.402544     1.582259
 H     0.000013    -1.402543     1.582258
