45
E(CCSDT_CBS_WCTQ_AE_T1_CPS_67) = -1379.5977544464836
Li    -0.028485     1.587020     2.794899
 C     1.064309    -0.226210     4.838927
 O     2.136705    -0.627719     4.154935
 O     0.975885    -0.823311     6.017298
 O     0.272876     0.578182     4.429511
 C     2.771557    -1.705929     4.855395
 C     2.150937    -1.613139     6.244317
 H     2.533046    -2.636567     4.338660
 H     3.846820    -1.542470     4.842874
 H     2.781991    -1.086985     6.961808
 H     1.847074    -2.573808     6.653984
 C    -2.929451     1.444626     2.285854
 O    -3.252931     2.557525     2.941771
 O    -3.994632     0.823686     1.803493
 O    -1.801871     1.055566     2.142355
 C    -4.680384     2.662897     3.031126
 C    -5.158919     1.634056     2.012531
 H    -4.976695     2.423584     4.053214
 H    -4.966498     3.684578     2.790988
 H    -5.442090     2.076559     1.056646
 H    -5.961847     0.997270     2.377038
 C     2.064708     0.137853     1.242816
 O     1.696089    -1.075503     0.902148
 O     3.372464     0.230714     1.188226
 O     1.315103     1.043639     1.552827
 C     3.921660     1.499081     1.549115
 H     4.997432     1.387967     1.446364
 H     3.555030     2.276727     0.879532
 H     3.657913     1.747084     2.577393
 C     0.289501    -1.327037     0.896586
 H     0.178099    -2.335083     0.507203
 H    -0.114588    -1.263387     1.907274
 H    -0.227198    -0.610833     0.259172
 C    -0.824410     4.438670     2.831812
 O    -1.413442     5.189517     3.731293
 O    -1.074467     4.909321     1.630094
 O    -0.145192     3.461223     3.076288
 C    -0.462221     4.209722     0.545355
 H    -0.706370     4.784093    -0.343857
 H     0.617514     4.160016     0.683634
 H    -0.864722     3.199086     0.465451
 C    -1.239245     4.778665     5.089678
 H    -1.795365     5.499485     5.682398
 H    -1.634519     3.773055     5.233514
 H    -0.183613     4.798023     5.358912
