16
E(CCSDT_CBS_WCTQ_AE_T1_CPS_67) = -421.0636206532187
 C     0.919903     0.202580    -3.017882
 O     0.437259     1.418395    -2.690107
 O     0.917421    -0.608735    -1.943085
 O     1.292784    -0.105966    -4.099875
 C    -0.045124     1.397862    -1.354936
 C     0.573315     0.130234    -0.767659
 H     0.287151     2.303981    -0.847549
 H    -1.137294     1.368013    -1.371707
 C     1.801585     0.378475     0.081188
 H    -0.158678    -0.466008    -0.218032
 H     2.504960     0.989450    -0.495909
 H     1.490628     0.984925     0.939226
 C     2.469241    -0.900409     0.551471
 H     3.351133    -0.680863     1.155317
 H     1.787206    -1.499061     1.161243
 H     2.782837    -1.510205    -0.296982
