57
E(CCSDT_CBS_WCTQ_AE_T1_CPS_67) = -1536.88018553223
Li    -5.765078     6.324981     5.046718
 C    -6.940653     3.577649     4.887145
 O    -6.996816     2.447133     4.195821
 O    -7.682184     3.527125     5.990189
 O    -6.296999     4.532977     4.550807
 C    -7.963132     1.570836     4.789432
 C    -8.195095     2.199095     6.158823
 H    -8.855084     1.570290     4.161403
 H    -7.541350     0.569106     4.832843
 H    -7.629620     1.713022     6.954998
 H    -9.244267     2.265938     6.438447
 C    -2.841475     6.501933     5.448186
 O    -2.499496     6.679297     4.173908
 O    -1.809530     6.657430     6.266159
 O    -3.954168     6.239540     5.813796
 C    -1.081098     6.857366     4.076753
 C    -0.673360     7.117903     5.523171
 H    -0.648957     5.943472     3.667304
 H    -0.883341     7.691706     3.407184
 H    -0.528796     8.176495     5.743256
 H     0.199801     6.552297     5.840796
 C    -4.881189     7.767637     2.549021
 O    -4.513961     9.014688     2.348657
 O    -4.412246     7.015711     1.583545
 O    -5.556787     7.386202     3.485802
 C    -4.730192     5.609912     1.629048
 H    -3.963247     5.153931     1.004353
 H    -4.615517     5.252708     2.652273
 C    -6.111678     5.333045     1.097287
 H    -6.873586     5.790488     1.729168
 H    -6.282173     4.254550     1.088991
 H    -6.219780     5.705993     0.077732
 C    -4.954086     9.985180     3.314813
 H    -4.931340    10.927257     2.769072
 H    -5.983036     9.759772     3.597358
 C    -4.046943    10.024229     4.518325
 H    -3.012726    10.203079     4.217871
 H    -4.104971     9.092108     5.081635
 H    -4.352434    10.837996     5.179173
 C    -7.518182     7.452690     7.308564
 O    -7.049459     7.476162     8.533125
 O    -8.762984     7.869766     7.308538
 O    -6.900858     7.103226     6.320299
 C    -9.454854     7.861075     6.046380
 H   -10.226882     8.620067     6.164273
 H    -8.762596     8.171882     5.262871
 C   -10.048370     6.505513     5.761228
 H    -9.266494     5.750975     5.662304
 H   -10.611724     6.544018     4.826456
 H   -10.730157     6.206756     6.559053
 C    -5.667672     7.111973     8.718775
 H    -5.624800     6.768119     9.751239
 H    -5.423099     6.284168     8.053396
 C    -4.759130     8.291541     8.490356
 H    -5.010317     9.113848     9.161795
 H    -4.827482     8.641660     7.459320
 H    -3.725759     7.993560     8.678774
