10
E(CCSDT_CBS_WCTQ_AE_T1_CPS_67) = -342.4255545431556
 C    -0.000048    -0.000033    -1.495961
 O     0.193101    -1.090825    -0.724836
 O    -0.193128     1.090808    -0.724875
 O     0.000005    -0.000041    -2.680155
 C    -0.044912    -0.759690     0.636349
 C     0.044915     0.759717     0.636310
 H    -1.036168    -1.121818     0.921133
 H     0.710738    -1.240972     1.255485
 H     1.036186     1.121826     0.921066
 H    -0.710689     1.241028     1.255481
