63
E(CCSDT_CBS_WCTQ_AE_T1_CPS_67) = -1615.5199118140335
Li    -3.141982     1.326409    -8.433552
 C    -5.235259     1.160184    -6.345227
 O    -4.485042     1.511719    -5.302620
 O    -6.455091     0.804030    -5.983957
 O    -4.844049     1.168619    -7.481639
 C    -5.284284     1.501355    -4.113884
 C    -6.551516     0.758273    -4.541434
 H    -4.730079     0.982370    -3.333152
 H    -5.467369     2.533769    -3.814119
 C    -6.624993    -0.674712    -4.070130
 H    -7.458052     1.304418    -4.276964
 H    -5.697397    -1.185553    -4.353907
 H    -6.643315    -0.650738    -2.975167
 C    -7.834555    -1.421369    -4.601094
 H    -7.850890    -2.444983    -4.225769
 H    -8.763732    -0.937941    -4.289945
 H    -7.825976    -1.462802    -5.691398
 C    -3.374737     3.045828   -10.794839
 O    -3.739857     4.189692   -11.352009
 O    -3.104407     2.112901   -11.701676
 O    -3.298424     2.873182    -9.607216
 C    -3.627028     4.088682   -12.776584
 C    -3.460366     2.586674   -13.019402
 H    -4.535306     4.494417   -13.219087
 H    -2.766694     4.678434   -13.094558
 C    -4.701677     1.873145   -13.503052
 H    -2.611814     2.370643   -13.670147
 H    -4.542030     0.798667   -13.382363
 H    -5.542878     2.147054   -12.855946
 C    -5.014394     2.199149   -14.953678
 H    -5.911195     1.671957   -15.279300
 H    -5.191782     3.266350   -15.108396
 H    -4.195965     1.897203   -15.611478
 C    -1.460792     1.853764    -6.006856
 O    -1.593236     3.086693    -5.573313
 O    -0.898071     1.119828    -5.076966
 O    -1.803861     1.454663    -7.103172
 C    -0.634347    -0.257708    -5.408278
 H    -0.570419    -0.750215    -4.438948
 H    -1.488580    -0.654811    -5.958659
 C    -2.199078     4.009165    -6.479916
 H    -1.654151     4.036626    -7.422884
 H    -3.236220     3.731491    -6.668703
 H    -2.151095     4.974773    -5.984317
 C     0.646403    -0.401416    -6.188417
 H     0.569688     0.087678    -7.160396
 H     1.485750     0.027246    -5.638992
 H     0.853452    -1.460759    -6.354088
 C    -3.240979    -0.689170   -10.660226
 O    -2.331705    -1.074439   -11.528299
 O    -4.436126    -0.940337   -11.141644
 O    -2.995696    -0.183434    -9.583519
 C    -5.564855    -0.601412   -10.310669
 H    -5.396370     0.376437    -9.859354
 H    -6.391234    -0.531360   -11.016955
 C    -0.975722    -0.831462   -11.151833
 H    -0.801285     0.239255   -11.043149
 H    -0.743502    -1.336481   -10.214491
 H    -0.373762    -1.236025   -11.960784
 C    -5.823217    -1.651454    -9.262546
 H    -5.985972    -2.628500    -9.719866
 H    -4.990034    -1.717242    -8.562203
 H    -6.718239    -1.379979    -8.699018
