18
E(CCSDT_CBS_WCTQ_AE_T1_CPS_67) = -422.2716878657318
 C     0.000001    -0.001817    -0.337244
 O     1.075888    -0.001382     0.442296
 O    -1.075881    -0.001385     0.442302
 O    -0.000005    -0.000171    -1.539540
 C    -2.327023    -0.000115    -0.254484
 H    -2.372165     0.881668    -0.898003
 H    -2.373602    -0.881375    -0.898618
 C    -3.420866     0.000426     0.778127
 H    -3.357614     0.885418     1.413509
 H    -3.359059    -0.885099     1.412907
 H    -4.393566     0.001389     0.282350
 C     2.327028    -0.000106    -0.254489
 H     2.373621    -0.881369    -0.898615
 H     2.372161     0.881672    -0.898015
 C     3.420862     0.000459     0.778128
 H     3.357745     0.885563     1.413367
 H     4.393564     0.001185     0.282356
 H     3.358910    -0.884960     1.413042
